
#======================================================================
# CRYSTAL DATA
#----------------------------------------------------------------------
data_VESTA_phase_1

_chemical_name_common                  '5K1H-Model_E-2_from-6K                '
_cell_length_a                         8.554600
_cell_length_b                         22.545799
_cell_length_c                         22.279301
_cell_angle_alpha                      90.000000
_cell_angle_beta                       96.453598
_cell_angle_gamma                      90.000000
_cell_volume                           4269.785876
_space_group_name_H-M_alt              'P 1'
_space_group_IT_number                 1

loop_
_space_group_symop_operation_xyz
   'x, y, z'

loop_
   _atom_site_label
   _atom_site_occupancy
   _atom_site_fract_x
   _atom_site_fract_y
   _atom_site_fract_z
   _atom_site_adp_type
   _atom_site_U_iso_or_equiv
   _atom_site_type_symbol
   C1         1.0     0.623662     0.380700     0.118028    Uiso  ? C
   C2         1.0     0.376338     0.619300     0.881972    Uiso  ? C
   C3         1.0     0.876338     0.880700     0.381972    Uiso  ? C
   C4         1.0     0.123662     0.119300     0.618028    Uiso  ? C
   C5         1.0     0.593979     0.279121     0.157454    Uiso  ? C
   C6         1.0     0.406021     0.720879     0.842546    Uiso  ? C
   C7         1.0     0.906021     0.779121     0.342546    Uiso  ? C
   C8         1.0     0.093979     0.220879     0.657454    Uiso  ? C
   C9         1.0     0.537008     0.327565     0.118119    Uiso  ? C
   C10        1.0     0.462992     0.672435     0.881881    Uiso  ? C
   C11        1.0     0.962992     0.827565     0.381881    Uiso  ? C
   C12        1.0     0.037008     0.172435     0.618119    Uiso  ? C
   C13        1.0     0.842699     0.334355     0.184617    Uiso  ? C
   C14        1.0     0.157301     0.665645     0.815383    Uiso  ? C
   C15        1.0     0.657301     0.834355     0.315383    Uiso  ? C
   C16        1.0     0.342699     0.165645     0.684617    Uiso  ? C
   C17        1.0     0.748261     0.281239     0.188604    Uiso  ? C
   C18        1.0     0.251739     0.718761     0.811396    Uiso  ? C
   C19        1.0     0.751739     0.781239     0.311396    Uiso  ? C
   C20        1.0     0.248261     0.218761     0.688604    Uiso  ? C
   C21        1.0     0.781668     0.383048     0.149530    Uiso  ? C
   C22        1.0     0.218332     0.616952     0.850470    Uiso  ? C
   C23        1.0     0.718332     0.883048     0.350470    Uiso  ? C
   C24        1.0     0.281668     0.116952     0.649530    Uiso  ? C
   C25        1.0     0.077851     0.383995     0.208207    Uiso  ? C
   C26        1.0     0.922149     0.616005     0.791793    Uiso  ? C
   C27        1.0     0.422149     0.883995     0.291793    Uiso  ? C
   C28        1.0     0.577851     0.116005     0.708207    Uiso  ? C
   C29        1.0     0.016560     0.432504     0.171031    Uiso  ? C
   C30        1.0    -0.016560     0.567496     0.828969    Uiso  ? C
   C31        1.0     0.483440     0.932504     0.328969    Uiso  ? C
   C32        1.0     0.516560     0.067496     0.671031    Uiso  ? C
   C33        1.0     0.553923     0.187917     0.200723    Uiso  ? C
   C34        1.0     0.446076     0.812083     0.799277    Uiso  ? C
   C35        1.0     0.946077     0.687917     0.299277    Uiso  ? C
   C36        1.0     0.053924     0.312083     0.700723    Uiso  ? C
   C37        1.0     0.716944     0.186004     0.224403    Uiso  ? C
   C38        1.0     0.283056     0.813996     0.775597    Uiso  ? C
   C39        1.0     0.783056     0.686004     0.275597    Uiso  ? C
   C40        1.0     0.216944     0.313996     0.724403    Uiso  ? C
   C41        1.0     0.343050     0.368094     0.050442    Uiso  ? C
   C42        1.0     0.656950     0.631906     0.949558    Uiso  ? C
   C43        1.0     0.156950     0.868094     0.449558    Uiso  ? C
   C44        1.0     0.843050     0.131906     0.550442    Uiso  ? C
   C45        1.0     0.418586     0.424926     0.058623    Uiso  ? C
   C46        1.0     0.581414     0.575074     0.941377    Uiso  ? C
   C47        1.0     0.081414     0.924926     0.441377    Uiso  ? C
   C48        1.0     0.918586     0.075074     0.558623    Uiso  ? C
   C49        1.0     0.807795     0.133352     0.254738    Uiso  ? C
   C50        1.0     0.192205     0.866648     0.745262    Uiso  ? C
   C51        1.0     0.692205     0.633352     0.245262    Uiso  ? C
   C52        1.0     0.307795     0.366648     0.754738    Uiso  ? C
   C53        1.0     0.239929     0.381248     0.245336    Uiso  ? C
   C54        1.0     0.760071     0.618752     0.754664    Uiso  ? C
   C55        1.0     0.260071     0.881248     0.254664    Uiso  ? C
   C56        1.0     0.739929     0.118752     0.745336    Uiso  ? C
   C57        1.0     0.117654     0.485093     0.157025    Uiso  ? C
   C58        1.0     0.882346     0.514907     0.842975    Uiso  ? C
   C59        1.0     0.382346     0.985093     0.342975    Uiso  ? C
   C60        1.0     0.617654     0.014907     0.657025    Uiso  ? C
   C61        1.0     0.423304     0.143884     0.211526    Uiso  ? C
   C62        1.0     0.576696     0.856116     0.788474    Uiso  ? C
   C63        1.0     0.076696     0.643884     0.288474    Uiso  ? C
   C64        1.0     0.923304     0.356116     0.711526    Uiso  ? C
   C65        1.0     0.195623     0.353459     0.008420    Uiso  ? C
   C66        1.0     0.804377     0.646541     0.991580    Uiso  ? C
   C67        1.0     0.304377     0.853459     0.491580    Uiso  ? C
   C68        1.0     0.695623     0.146541     0.508420    Uiso  ? C
   C69        1.0     0.336398     0.482407     0.035994    Uiso  ? C
   C70        1.0     0.663602     0.517593     0.964006    Uiso  ? C
   C71        1.0     0.163602     0.982407     0.464006    Uiso  ? C
   C72        1.0     0.836398     0.017593     0.535994    Uiso  ? C
   N1         1.0     0.399709     0.321643     0.082835    Uiso  ? N
   N2         1.0     0.600291     0.678357     0.917165    Uiso  ? N
   N3         1.0     0.100291     0.821643     0.417165    Uiso  ? N
   N4         1.0     0.899709     0.178357     0.582835    Uiso  ? N
   N5         1.0     0.558949     0.429392     0.090262    Uiso  ? N
   N6         1.0     0.441051     0.570608     0.909738    Uiso  ? N
   N7         1.0     0.941051     0.929392     0.409738    Uiso  ? N
   N8         1.0     0.058949     0.070608     0.590262    Uiso  ? N
   N9         1.0     0.807983     0.233645     0.219388    Uiso  ? N
   N10        1.0     0.192017     0.766355     0.780612    Uiso  ? N
   N11        1.0     0.692017     0.733645     0.280612    Uiso  ? N
   N12        1.0     0.307983     0.266355     0.719388    Uiso  ? N
   N13        1.0     0.499210     0.233364     0.166095    Uiso  ? N
   N14        1.0     0.500790     0.766636     0.833905    Uiso  ? N
   N15        1.0     0.000790     0.733364     0.333905    Uiso  ? N
   N16        1.0    -0.000790     0.266636     0.666095    Uiso  ? N
   N17        1.0    -0.010044     0.335727     0.213577    Uiso  ? N
   N18        1.0     0.010044     0.664273     0.786423    Uiso  ? N
   N19        1.0     0.510044     0.835727     0.286423    Uiso  ? N
   N20        1.0     0.489956     0.164273     0.713577    Uiso  ? N
   N21        1.0     0.870492     0.431625     0.143485    Uiso  ? N
   N22        1.0     0.129508     0.568375     0.856515    Uiso  ? N
   N23        1.0     0.629508     0.931625     0.356515    Uiso  ? N
   N24        1.0     0.370492     0.068375     0.643485    Uiso  ? N
   O1         1.0     0.050725     0.535117     0.148630    Uiso  ? O
   O2         1.0     0.949275     0.464883     0.851370    Uiso  ? O
   O3         1.0     0.449275     0.035117     0.351370    Uiso  ? O
   O4         1.0     0.550725    -0.035117     0.648630    Uiso  ? O
   O5         1.0     0.948449     0.139918     0.275007    Uiso  ? O
   O6         1.0     0.051551     0.860082     0.724993    Uiso  ? O
   O7         1.0     0.551551     0.639918     0.224993    Uiso  ? O
   O8         1.0     0.448449     0.360082     0.775007    Uiso  ? O
   O9         1.0     0.078174     0.336696     0.034807    Uiso  ? O
   O10        1.0     0.921826     0.663304     0.965193    Uiso  ? O
   O11        1.0     0.421826     0.836696     0.465193    Uiso  ? O
   O12        1.0     0.578174     0.163304     0.534807    Uiso  ? O
   O13        1.0     0.310938     0.331975     0.241583    Uiso  ? O
   O14        1.0     0.689062     0.668025     0.758417    Uiso  ? O
   O15        1.0     0.189062     0.831975     0.258417    Uiso  ? O
   O16        1.0     0.810938     0.168025     0.741583    Uiso  ? O
   O17        1.0     0.284874     0.163172     0.208416    Uiso  ? O
   O18        1.0     0.715126     0.836828     0.791584    Uiso  ? O
   O19        1.0     0.215126     0.663172     0.291584    Uiso  ? O
   O20        1.0     0.784874     0.336828     0.708416    Uiso  ? O
   O21        1.0     0.460123     0.089318     0.222104    Uiso  ? O
   O22        1.0     0.539877     0.910682     0.777896    Uiso  ? O
   O23        1.0     0.039877     0.589318     0.277896    Uiso  ? O
   O24        1.0     0.960123     0.410682     0.722104    Uiso  ? O
   O25        1.0     0.278900     0.425421     0.278183    Uiso  ? O
   O26        1.0     0.721100     0.574579     0.721817    Uiso  ? O
   O27        1.0     0.221100     0.925421     0.221817    Uiso  ? O
   O28        1.0     0.778900     0.074579     0.778183    Uiso  ? O
   O29        1.0     0.261324     0.473092     0.155365    Uiso  ? O
   O30        1.0     0.738676     0.526908     0.844635    Uiso  ? O
   O31        1.0     0.238676     0.973092     0.344635    Uiso  ? O
   O32        1.0     0.761324     0.026908     0.655365    Uiso  ? O
   O33        1.0     0.204308     0.355817     0.952376    Uiso  ? O
   O34        1.0     0.795692     0.644183     0.047624    Uiso  ? O
   O35        1.0     0.295692     0.855817     0.547624    Uiso  ? O
   O36        1.0     0.704308     0.144183     0.452376    Uiso  ? O
   O37        1.0     0.201272     0.475484     0.006122    Uiso  ? O
   O38        1.0     0.798728     0.524516    -0.006122    Uiso  ? O
   O39        1.0     0.298728     0.975484     0.493878    Uiso  ? O
   O40        1.0     0.701272     0.024516     0.506122    Uiso  ? O
   O41        1.0     0.404120     0.531039     0.049249    Uiso  ? O
   O42        1.0     0.595880     0.468961     0.950751    Uiso  ? O
   O43        1.0     0.095880     0.031039     0.450750    Uiso  ? O
   O44        1.0     0.904120     0.968961     0.549249    Uiso  ? O
   O45        1.0     0.736634     0.082379     0.256899    Uiso  ? O
   O46        1.0     0.263366     0.917621     0.743101    Uiso  ? O
   O47        1.0     0.763366     0.582379     0.243101    Uiso  ? O
   O48        1.0     0.236634     0.417621     0.756899    Uiso  ? O
   K1         1.0     0.856601     0.760575     0.714102    Uiso  ? K
   K2         1.0     0.143399     0.239425     0.285898    Uiso  ? K
   K3         1.0    -0.356601     0.260575     0.785898    Uiso  ? K
   K4         1.0     0.356601     0.739425     0.214102    Uiso  ? K
   K5         1.0     0.905482     0.419333    -0.036678    Uiso  ? K
   K6         1.0     0.094518     0.580667     0.036678    Uiso  ? K
   K7         1.0     0.594518     0.919333     0.536678    Uiso  ? K
   K8         1.0     0.405482     0.080667     0.463322    Uiso  ? K
   K9         1.0     0.656260     0.461031     0.748441    Uiso  ? K
   K10        1.0     0.343740     0.538969     0.251559    Uiso  ? K
   K11        1.0     0.843740     0.961031     0.751559    Uiso  ? K
   K12        1.0     0.156260     0.038969     0.248441    Uiso  ? K
   K13        1.0     0.208267     0.954275     0.609287    Uiso  ? K
   K14        1.0     0.791733     0.045725     0.390713    Uiso  ? K
   K15        1.0     0.291733     0.454275     0.890713    Uiso  ? K
   K16        1.0     0.708267     0.545725     0.109287    Uiso  ? K
   K17        1.0     0.830949     0.739768     0.871312    Uiso  ? K
   K18        1.0     0.169051     0.260232     0.128688    Uiso  ? K
   K19        1.0     0.669051     0.239768     0.628688    Uiso  ? K
   K20        1.0     0.330949     0.760232     0.371312    Uiso  ? K
   H1         1.0     0.604758     0.083746     0.238573    Uiso  ? H
   H2         1.0     0.395242     0.916254     0.761427    Uiso  ? H
   H3         1.0     0.895242     0.583746     0.261427    Uiso  ? H
   H4         1.0     0.104758     0.416254     0.738573    Uiso  ? H
